*Heading
** Job name: Job-1 Model name: Model-1
** Generated by: Abaqus/CAE 2023
*Preprint, echo=NO, model=NO, history=NO, contact=NO
**
** PARTS
**
*Part, name="Left Grip"
*Node
      1,   59.2386131,  -4.76410723,         100.
      2,   57.1578369,  -9.12389469,         100.
      3,   54.1549683,  -12.9154911,         100.
      4,   50.5583839,  -16.1543331,         100.
      5,   46.5780106,   -18.910902,         100.
      6,   42.3410149,  -21.2558136,         100.
      7,   37.9260025,  -23.2466049,         100.
      8,   33.3836594,  -24.9275513,         100.
      9,     28.74823,   -26.332201,         100.
     10,   24.0439262,  -27.4858589,         100.
     11,   19.2886448,  -28.4075184,         100.
     12,   14.4962091,  -29.1112518,         100.
     13,   9.67780113,  -29.6071796,         100.
     14,   4.84290504,  -29.9021168,         100.
     15,           0.,         -30.,         100.
     16,  -4.84290504,  -29.9021168,         100.
     17,  -9.67780113,  -29.6071796,         100.
     18,  -14.4962091,  -29.1112518,         100.
     19,  -19.2886448,  -28.4075184,         100.
     20,  -24.0439262,  -27.4858589,         100.
** ... 1300 like lines cut
*Element, type=S4R
   1,   60,    1,   61,  120
   2,    1,    2,   62,   61
   3,    2,    3,   63,   62
   4,    3,    4,   64,   63
   5,    4,    5,   65,   64
   6,    5,    6,   66,   65
   7,    6,    7,   67,   66
   8,    7,    8,   68,   67
   9,    8,    9,   69,   68
  10,    9,   10,   70,   69
  11,   10,   11,   71,   70
  12,   11,   12,   72,   71
  13,   12,   13,   73,   72
  14,   13,   14,   74,   73
  15,   14,   15,   75,   74
  16,   15,   16,   76,   75
  17,   16,   17,   77,   76
  18,   17,   18,   78,   77
  19,   18,   19,   79,   78
  20,   19,   20,   80,   79
** ... 1240 like lines cut
*Nset, nset=_PickedSet2, internal, generate
    1,  1320,     1
*Elset, elset=_PickedSet2, internal, generate
    1,  1260,     1
** Section: Section-2
*Shell Section, elset=_PickedSet2, material="ASTM 36A"
1., 5
*End Part
**  
*Part, name="Oval Bar"
*Node
      1,   59.2386131,   4.76410723,           0.
      2,   54.1549683,   12.9154911,           0.
      3,   42.3410149,   21.2558136,           0.
      4,   24.0439262,   27.4858589,           0.
      5,           0.,          30.,           0.
      6,  -24.0439262,   27.4858589,           0.
      7,  -42.3410149,   21.2558136,           0.
      8,  -54.1549683,   12.9154911,           0.
      9,  -59.2386131,   4.76410723,           0.
     10,         -60.,           0.,           0.
     11,  -59.2386131,  -4.76410723,           0.
     12,  -54.1549683,  -12.9154911,           0.
     13,  -42.3410149,  -21.2558136,           0.
     14,  -24.0439262,  -27.4858589,           0.
     15,           0.,         -30.,           0.
     16,   24.0439262,  -27.4858589,           0.
     17,   42.3410149,  -21.2558136,           0.
     18,   54.1549683,  -12.9154911,           0.
     19,   59.2386131,  -4.76410723,           0.
     20,          60.,           0.,           0.
** ... 28216 like lines cut
*Element, type=C3D8R
    1,   423,   382,   381,   525,    61,    20,    19,   163
    2,   422,   477,   525,   381,    60,   115,   163,    19
    3,   423,   705,   547,   438,    61,   343,   185,    76
    4,   387,   386,   424,   443,    25,    24,    62,    81
    5,   390,   389,   425,   446,    28,    27,    63,    84
    6,   394,   393,   426,   450,    32,    31,    64,    88
    7,   512,   518,   446,   425,   150,   156,    84,    63
    8,   396,   395,   451,   428,    34,    33,    89,    66
    9,   453,   429,   397,   368,    91,    67,    35,     6
   10,   454,   430,   399,   398,    92,    68,    37,    36
   11,   401,   400,   434,   431,    39,    38,    72,    69
   12,   695,   696,   457,   528,   333,   334,    95,   166
   13,   695,   371,   402,   696,   333,     9,    40,   334
   14,   528,   457,   478,   532,   166,    95,   116,   170
   15,   443,   435,   388,   387,    81,    73,    26,    25
   16,   440,   527,   564,   484,    78,   165,   202,   122
   17,   383,   363,   438,   437,    21,     1,    76,    75
   18,   382,   423,   438,   363,    20,    61,    76,     1
   19,   476,   421,   420,   475,   114,    59,    58,   113
   20,   437,   527,   364,   383,    75,   165,     2,    21
** ... 25467 like lines cut
*Nset, nset=_PickedSet2, internal, generate
     1,  28236,      1
*Elset, elset=_PickedSet2, internal, generate
     1,  25487,      1
** Section: Section-1
*Solid Section, elset=_PickedSet2, material="ASTM 36A"
,
*End Part
**  
*Part, name="Right Grip"
*Node
      1,   59.2386131,  -4.76410723,         100.
      2,   57.1578369,  -9.12389469,         100.
      3,   54.1549683,  -12.9154911,         100.
      4,   50.5583839,  -16.1543331,         100.
      5,   46.5780106,   -18.910902,         100.
      6,   42.3410149,  -21.2558136,         100.
      7,   37.9260025,  -23.2466049,         100.
      8,   33.3836594,  -24.9275513,         100.
      9,     28.74823,   -26.332201,         100.
     10,   24.0439262,  -27.4858589,         100.
     11,   19.2886448,  -28.4075184,         100.
     12,   14.4962091,  -29.1112518,         100.
     13,   9.67780113,  -29.6071796,         100.
     14,   4.84290504,  -29.9021168,         100.
     15,           0.,         -30.,         100.
     16,  -4.84290504,  -29.9021168,         100.
     17,  -9.67780113,  -29.6071796,         100.
     18,  -14.4962091,  -29.1112518,         100.
     19,  -19.2886448,  -28.4075184,         100.
     20,  -24.0439262,  -27.4858589,         100.
** ... 1300 like lines cut
*Element, type=S4R
   1,   60,    1,   61,  120
   2,    1,    2,   62,   61
   3,    2,    3,   63,   62
   4,    3,    4,   64,   63
   5,    4,    5,   65,   64
   6,    5,    6,   66,   65
   7,    6,    7,   67,   66
   8,    7,    8,   68,   67
   9,    8,    9,   69,   68
  10,    9,   10,   70,   69
  11,   10,   11,   71,   70
  12,   11,   12,   72,   71
  13,   12,   13,   73,   72
  14,   13,   14,   74,   73
  15,   14,   15,   75,   74
  16,   15,   16,   76,   75
  17,   16,   17,   77,   76
  18,   17,   18,   78,   77
  19,   18,   19,   79,   78
  20,   19,   20,   80,   79
** ... 1240 like lines cut
*Nset, nset=_PickedSet2, internal, generate
    1,  1320,     1
*Elset, elset=_PickedSet2, internal, generate
    1,  1260,     1
** Section: Section-2
*Shell Section, elset=_PickedSet2, material="ASTM 36A"
1., 5
*End Part
**  
**
** ASSEMBLY
**
*Assembly, name=Assembly
**  
*Instance, name="Left Grip-1", part="Left Grip"
*End Instance
**  
*Instance, name="Oval Bar-1", part="Oval Bar"
*End Instance
**  
*Instance, name="Right Grip-1", part="Right Grip"
          0.,           0.,         900.
*End Instance
**  
*Node
      1,           0.,           0.,           0.
*Node
      2,           0.,           0.,        1000.
*Nset, nset=_PickedSet15, internal
 1,
*Nset, nset=_PickedSet17, internal
 2,
*Nset, nset=_PickedSet18, internal
 1,
*Nset, nset=_PickedSet19, internal, instance="Left Grip-1", generate
    1,  1320,     1
*Elset, elset=_PickedSet19, internal, instance="Left Grip-1", generate
    1,  1260,     1
*Nset, nset=_PickedSet20, internal
 2,
*Nset, nset=_PickedSet21, internal, instance="Right Grip-1", generate
    1,  1320,     1
*Elset, elset=_PickedSet21, internal, instance="Right Grip-1", generate
    1,  1260,     1
*Nset, nset=_PickedSet22, internal
 1, 2
*Nset, nset=_PickedSet23, internal
 1,
*Nset, nset=_PickedSet24, internal
 2,
*Elset, elset=__PickedSurf8_SNEG, internal, instance="Left Grip-1", generate
    1,  1260,     1
*Surface, type=ELEMENT, name=_PickedSurf8, internal
__PickedSurf8_SNEG, SNEG
*Elset, elset=__PickedSurf9_S4, internal, instance="Oval Bar-1"
     1,    13,    19,    29,    50,    52,    63,    65,    77,    79,    80,    83,    84,    87,    88,    92
   332,   344,   350,   360,   381,   383,   394,   396,   408,   410,   411,   414,   415,   418,   419,   423
   663,   675,   681,   691,   712,   714,   725,   727,   739,   741,   742,   745,   746,   749,   750,   754
   994,  1006,  1012,  1022,  1043,  1045,  1056,  1058,  1070,  1072,  1073,  1076,  1077,  1080,  1081,  1085
  1325,  1337,  1343,  1353,  1374,  1376,  1387,  1389,  1401,  1403,  1404,  1407,  1408,  1411,  1412,  1416
  1656,  1668,  1674,  1684,  1705,  1707,  1718,  1720,  1732,  1734,  1735,  1738,  1739,  1742,  1743,  1747
  1987,  1999,  2005,  2015,  2036,  2038,  2049,  2051,  2063,  2065,  2066,  2069,  2070,  2073,  2074,  2078
  2318,  2330,  2336,  2346,  2367,  2369,  2380,  2382,  2394,  2396,  2397,  2400,  2401,  2404,  2405,  2409
  2649,  2661,  2667,  2677,  2698,  2700,  2711,  2713,  2725,  2727,  2728,  2731,  2732,  2735,  2736,  2740
  2980,  2992,  2998,  3008,  3029,  3031,  3042,  3044,  3056,  3058,  3059,  3062,  3063,  3066,  3067,  3071
  3311,  3323,  3329,  3339,  3360,  3362,  3373,  3375,  3387,  3389,  3390,  3393,  3394,  3397,  3398,  3402
  3642,  3654,  3660,  3670,  3691,  3693,  3704,  3706,  3718,  3720,  3721,  3724,  3725,  3728,  3729,  3733
  3973,  3985,  3991,  4001,  4022,  4024,  4035,  4037,  4049,  4051,  4052,  4055,  4056,  4059,  4060,  4064
  4304,  4316,  4322,  4332,  4353,  4355,  4366,  4368,  4380,  4382,  4383,  4386,  4387,  4390,  4391,  4395
  4635,  4647,  4653,  4663,  4684,  4686,  4697,  4699,  4711,  4713,  4714,  4717,  4718,  4721,  4722,  4726
  4966,  4978,  4984,  4994,  5015,  5017,  5028,  5030,  5042,  5044,  5045,  5048,  5049,  5052,  5053,  5057
  5297,  5309,  5315,  5325,  5346,  5348,  5359,  5361,  5373,  5375,  5376,  5379,  5380,  5383,  5384,  5388
  5628,  5640,  5646,  5656,  5677,  5679,  5690,  5692,  5704,  5706,  5707,  5710,  5711,  5714,  5715,  5719
  5959,  5971,  5977,  5987,  6008,  6010,  6021,  6023,  6035,  6037,  6038,  6041,  6042,  6045,  6046,  6050
  6290,  6302,  6308,  6318,  6339,  6341,  6352,  6354,  6366,  6368,  6369,  6372,  6373,  6376,  6377,  6381
** ... 57 like lines cut
*Elset, elset=__PickedSurf9_S6, internal, instance="Oval Bar-1"
     2,    18,    35,    39,    41,    42,    45,    48,    51,    54,    61,    66,    74,    95,    99,   102
   106,   324,   333,   349,   366,   370,   372,   373,   376,   379,   382,   385,   392,   397,   405,   426
   430,   433,   437,   655,   664,   680,   697,   701,   703,   704,   707,   710,   713,   716,   723,   728
   736,   757,   761,   764,   768,   986,   995,  1011,  1028,  1032,  1034,  1035,  1038,  1041,  1044,  1047
  1054,  1059,  1067,  1088,  1092,  1095,  1099,  1317,  1326,  1342,  1359,  1363,  1365,  1366,  1369,  1372
  1375,  1378,  1385,  1390,  1398,  1419,  1423,  1426,  1430,  1648,  1657,  1673,  1690,  1694,  1696,  1697
  1700,  1703,  1706,  1709,  1716,  1721,  1729,  1750,  1754,  1757,  1761,  1979,  1988,  2004,  2021,  2025
  2027,  2028,  2031,  2034,  2037,  2040,  2047,  2052,  2060,  2081,  2085,  2088,  2092,  2310,  2319,  2335
  2352,  2356,  2358,  2359,  2362,  2365,  2368,  2371,  2378,  2383,  2391,  2412,  2416,  2419,  2423,  2641
  2650,  2666,  2683,  2687,  2689,  2690,  2693,  2696,  2699,  2702,  2709,  2714,  2722,  2743,  2747,  2750
  2754,  2972,  2981,  2997,  3014,  3018,  3020,  3021,  3024,  3027,  3030,  3033,  3040,  3045,  3053,  3074
  3078,  3081,  3085,  3303,  3312,  3328,  3345,  3349,  3351,  3352,  3355,  3358,  3361,  3364,  3371,  3376
  3384,  3405,  3409,  3412,  3416,  3634,  3643,  3659,  3676,  3680,  3682,  3683,  3686,  3689,  3692,  3695
  3702,  3707,  3715,  3736,  3740,  3743,  3747,  3965,  3974,  3990,  4007,  4011,  4013,  4014,  4017,  4020
  4023,  4026,  4033,  4038,  4046,  4067,  4071,  4074,  4078,  4296,  4305,  4321,  4338,  4342,  4344,  4345
  4348,  4351,  4354,  4357,  4364,  4369,  4377,  4398,  4402,  4405,  4409,  4627,  4636,  4652,  4669,  4673
  4675,  4676,  4679,  4682,  4685,  4688,  4695,  4700,  4708,  4729,  4733,  4736,  4740,  4958,  4967,  4983
  5000,  5004,  5006,  5007,  5010,  5013,  5016,  5019,  5026,  5031,  5039,  5060,  5064,  5067,  5071,  5289
  5298,  5314,  5331,  5335,  5337,  5338,  5341,  5344,  5347,  5350,  5357,  5362,  5370,  5391,  5395,  5398
  5402,  5620,  5629,  5645,  5662,  5666,  5668,  5669,  5672,  5675,  5678,  5681,  5688,  5693,  5701,  5722
** ... 67 like lines cut
*Elset, elset=__PickedSurf9_S3, internal, instance="Oval Bar-1"
     4,     5,     6,     8,    11,    17,    21,    26,    31,    32,    53,    55,    56,    57,    64,    68
    70,    81,    85,   335,   336,   337,   339,   342,   348,   352,   357,   362,   363,   384,   386,   387
   388,   395,   399,   401,   412,   416,   666,   667,   668,   670,   673,   679,   683,   688,   693,   694
   715,   717,   718,   719,   726,   730,   732,   743,   747,   997,   998,   999,  1001,  1004,  1010,  1014
  1019,  1024,  1025,  1046,  1048,  1049,  1050,  1057,  1061,  1063,  1074,  1078,  1328,  1329,  1330,  1332
  1335,  1341,  1345,  1350,  1355,  1356,  1377,  1379,  1380,  1381,  1388,  1392,  1394,  1405,  1409,  1659
  1660,  1661,  1663,  1666,  1672,  1676,  1681,  1686,  1687,  1708,  1710,  1711,  1712,  1719,  1723,  1725
  1736,  1740,  1990,  1991,  1992,  1994,  1997,  2003,  2007,  2012,  2017,  2018,  2039,  2041,  2042,  2043
  2050,  2054,  2056,  2067,  2071,  2321,  2322,  2323,  2325,  2328,  2334,  2338,  2343,  2348,  2349,  2370
  2372,  2373,  2374,  2381,  2385,  2387,  2398,  2402,  2652,  2653,  2654,  2656,  2659,  2665,  2669,  2674
  2679,  2680,  2701,  2703,  2704,  2705,  2712,  2716,  2718,  2729,  2733,  2983,  2984,  2985,  2987,  2990
  2996,  3000,  3005,  3010,  3011,  3032,  3034,  3035,  3036,  3043,  3047,  3049,  3060,  3064,  3314,  3315
  3316,  3318,  3321,  3327,  3331,  3336,  3341,  3342,  3363,  3365,  3366,  3367,  3374,  3378,  3380,  3391
  3395,  3645,  3646,  3647,  3649,  3652,  3658,  3662,  3667,  3672,  3673,  3694,  3696,  3697,  3698,  3705
  3709,  3711,  3722,  3726,  3976,  3977,  3978,  3980,  3983,  3989,  3993,  3998,  4003,  4004,  4025,  4027
  4028,  4029,  4036,  4040,  4042,  4053,  4057,  4307,  4308,  4309,  4311,  4314,  4320,  4324,  4329,  4334
  4335,  4356,  4358,  4359,  4360,  4367,  4371,  4373,  4384,  4388,  4638,  4639,  4640,  4642,  4645,  4651
  4655,  4660,  4665,  4666,  4687,  4689,  4690,  4691,  4698,  4702,  4704,  4715,  4719,  4969,  4970,  4971
  4973,  4976,  4982,  4986,  4991,  4996,  4997,  5018,  5020,  5021,  5022,  5029,  5033,  5035,  5046,  5050
  5300,  5301,  5302,  5304,  5307,  5313,  5317,  5322,  5327,  5328,  5349,  5351,  5352,  5353,  5360,  5364
** ... 72 like lines cut
*Elset, elset=__PickedSurf9_S5, internal, instance="Oval Bar-1"
     9,    10,    15,    20,    30,    62,    75,   340,   341,   346,   351,   361,   393,   406,   671,   672
   677,   682,   692,   724,   737,  1002,  1003,  1008,  1013,  1023,  1055,  1068,  1333,  1334,  1339,  1344
  1354,  1386,  1399,  1664,  1665,  1670,  1675,  1685,  1717,  1730,  1995,  1996,  2001,  2006,  2016,  2048
  2061,  2326,  2327,  2332,  2337,  2347,  2379,  2392,  2657,  2658,  2663,  2668,  2678,  2710,  2723,  2988
  2989,  2994,  2999,  3009,  3041,  3054,  3319,  3320,  3325,  3330,  3340,  3372,  3385,  3650,  3651,  3656
  3661,  3671,  3703,  3716,  3981,  3982,  3987,  3992,  4002,  4034,  4047,  4312,  4313,  4318,  4323,  4333
  4365,  4378,  4643,  4644,  4649,  4654,  4664,  4696,  4709,  4974,  4975,  4980,  4985,  4995,  5027,  5040
  5305,  5306,  5311,  5316,  5326,  5358,  5371,  5636,  5637,  5642,  5647,  5657,  5689,  5702,  5967,  5968
  5973,  5978,  5988,  6020,  6033,  6298,  6299,  6304,  6309,  6319,  6351,  6364,  6629,  6630,  6635,  6640
  6650,  6682,  6695,  6960,  6961,  6966,  6971,  6981,  7013,  7026,  7291,  7292,  7297,  7302,  7312,  7344
  7357,  7622,  7623,  7628,  7633,  7643,  7675,  7688,  7953,  7954,  7959,  7964,  7974,  8006,  8019,  8284
  8285,  8290,  8295,  8305,  8337,  8350,  8615,  8616,  8621,  8626,  8636,  8668,  8681,  8946,  8947,  8952
  8957,  8967,  8999,  9012,  9277,  9278,  9283,  9288,  9298,  9330,  9343,  9608,  9609,  9614,  9619,  9629
  9661,  9674,  9939,  9940,  9945,  9950,  9960,  9992, 10005, 10270, 10271, 10276, 10281, 10291, 10323, 10336
 10601, 10602, 10607, 10612, 10622, 10654, 10667, 10932, 10933, 10938, 10943, 10953, 10985, 10998, 11263, 11264
 11269, 11274, 11284, 11316, 11329, 11594, 11595, 11600, 11605, 11615, 11647, 11660, 11925, 11926, 11931, 11936
 11946, 11978, 11991, 12256, 12257, 12262, 12267, 12277, 12309, 12322, 12587, 12588, 12593, 12598, 12608, 12640
 12653, 12918, 12919, 12924, 12929, 12939, 12971, 12984, 13249, 13250, 13255, 13260, 13270, 13302, 13315, 13580
 13581, 13586, 13591, 13601, 13633, 13646, 13911, 13912, 13917, 13922, 13932, 13964, 13977, 14242, 14243, 14248
 14253, 14263, 14295, 14308, 14573, 14574, 14579, 14584, 14594, 14626, 14639, 14904, 14905, 14910, 14915, 14925
** ... 14 like lines cut
*Surface, type=ELEMENT, name=_PickedSurf9, internal
__PickedSurf9_S4, S4
__PickedSurf9_S6, S6
__PickedSurf9_S3, S3
__PickedSurf9_S5, S5
*Elset, elset=__PickedSurf10_SNEG, internal, instance="Right Grip-1", generate
    1,  1260,     1
*Surface, type=ELEMENT, name=_PickedSurf10, internal
__PickedSurf10_SNEG, SNEG
*Elset, elset=__PickedSurf11_S4, internal, instance="Oval Bar-1"
     1,    13,    19,    29,    50,    52,    63,    65,    77,    79,    80,    83,    84,    87,    88,    92
   332,   344,   350,   360,   381,   383,   394,   396,   408,   410,   411,   414,   415,   418,   419,   423
   663,   675,   681,   691,   712,   714,   725,   727,   739,   741,   742,   745,   746,   749,   750,   754
   994,  1006,  1012,  1022,  1043,  1045,  1056,  1058,  1070,  1072,  1073,  1076,  1077,  1080,  1081,  1085
  1325,  1337,  1343,  1353,  1374,  1376,  1387,  1389,  1401,  1403,  1404,  1407,  1408,  1411,  1412,  1416
  1656,  1668,  1674,  1684,  1705,  1707,  1718,  1720,  1732,  1734,  1735,  1738,  1739,  1742,  1743,  1747
  1987,  1999,  2005,  2015,  2036,  2038,  2049,  2051,  2063,  2065,  2066,  2069,  2070,  2073,  2074,  2078
  2318,  2330,  2336,  2346,  2367,  2369,  2380,  2382,  2394,  2396,  2397,  2400,  2401,  2404,  2405,  2409
  2649,  2661,  2667,  2677,  2698,  2700,  2711,  2713,  2725,  2727,  2728,  2731,  2732,  2735,  2736,  2740
  2980,  2992,  2998,  3008,  3029,  3031,  3042,  3044,  3056,  3058,  3059,  3062,  3063,  3066,  3067,  3071
  3311,  3323,  3329,  3339,  3360,  3362,  3373,  3375,  3387,  3389,  3390,  3393,  3394,  3397,  3398,  3402
  3642,  3654,  3660,  3670,  3691,  3693,  3704,  3706,  3718,  3720,  3721,  3724,  3725,  3728,  3729,  3733
  3973,  3985,  3991,  4001,  4022,  4024,  4035,  4037,  4049,  4051,  4052,  4055,  4056,  4059,  4060,  4064
  4304,  4316,  4322,  4332,  4353,  4355,  4366,  4368,  4380,  4382,  4383,  4386,  4387,  4390,  4391,  4395
  4635,  4647,  4653,  4663,  4684,  4686,  4697,  4699,  4711,  4713,  4714,  4717,  4718,  4721,  4722,  4726
  4966,  4978,  4984,  4994,  5015,  5017,  5028,  5030,  5042,  5044,  5045,  5048,  5049,  5052,  5053,  5057
  5297,  5309,  5315,  5325,  5346,  5348,  5359,  5361,  5373,  5375,  5376,  5379,  5380,  5383,  5384,  5388
  5628,  5640,  5646,  5656,  5677,  5679,  5690,  5692,  5704,  5706,  5707,  5710,  5711,  5714,  5715,  5719
  5959,  5971,  5977,  5987,  6008,  6010,  6021,  6023,  6035,  6037,  6038,  6041,  6042,  6045,  6046,  6050
  6290,  6302,  6308,  6318,  6339,  6341,  6352,  6354,  6366,  6368,  6369,  6372,  6373,  6376,  6377,  6381
** ... 57 like lines cut
*Elset, elset=__PickedSurf11_S6, internal, instance="Oval Bar-1"
     2,    18,    35,    39,    41,    42,    45,    48,    51,    54,    61,    66,    74,    95,    99,   102
   106,   324,   333,   349,   366,   370,   372,   373,   376,   379,   382,   385,   392,   397,   405,   426
   430,   433,   437,   655,   664,   680,   697,   701,   703,   704,   707,   710,   713,   716,   723,   728
   736,   757,   761,   764,   768,   986,   995,  1011,  1028,  1032,  1034,  1035,  1038,  1041,  1044,  1047
  1054,  1059,  1067,  1088,  1092,  1095,  1099,  1317,  1326,  1342,  1359,  1363,  1365,  1366,  1369,  1372
  1375,  1378,  1385,  1390,  1398,  1419,  1423,  1426,  1430,  1648,  1657,  1673,  1690,  1694,  1696,  1697
  1700,  1703,  1706,  1709,  1716,  1721,  1729,  1750,  1754,  1757,  1761,  1979,  1988,  2004,  2021,  2025
  2027,  2028,  2031,  2034,  2037,  2040,  2047,  2052,  2060,  2081,  2085,  2088,  2092,  2310,  2319,  2335
  2352,  2356,  2358,  2359,  2362,  2365,  2368,  2371,  2378,  2383,  2391,  2412,  2416,  2419,  2423,  2641
  2650,  2666,  2683,  2687,  2689,  2690,  2693,  2696,  2699,  2702,  2709,  2714,  2722,  2743,  2747,  2750
  2754,  2972,  2981,  2997,  3014,  3018,  3020,  3021,  3024,  3027,  3030,  3033,  3040,  3045,  3053,  3074
  3078,  3081,  3085,  3303,  3312,  3328,  3345,  3349,  3351,  3352,  3355,  3358,  3361,  3364,  3371,  3376
  3384,  3405,  3409,  3412,  3416,  3634,  3643,  3659,  3676,  3680,  3682,  3683,  3686,  3689,  3692,  3695
  3702,  3707,  3715,  3736,  3740,  3743,  3747,  3965,  3974,  3990,  4007,  4011,  4013,  4014,  4017,  4020
  4023,  4026,  4033,  4038,  4046,  4067,  4071,  4074,  4078,  4296,  4305,  4321,  4338,  4342,  4344,  4345
  4348,  4351,  4354,  4357,  4364,  4369,  4377,  4398,  4402,  4405,  4409,  4627,  4636,  4652,  4669,  4673
  4675,  4676,  4679,  4682,  4685,  4688,  4695,  4700,  4708,  4729,  4733,  4736,  4740,  4958,  4967,  4983
  5000,  5004,  5006,  5007,  5010,  5013,  5016,  5019,  5026,  5031,  5039,  5060,  5064,  5067,  5071,  5289
  5298,  5314,  5331,  5335,  5337,  5338,  5341,  5344,  5347,  5350,  5357,  5362,  5370,  5391,  5395,  5398
  5402,  5620,  5629,  5645,  5662,  5666,  5668,  5669,  5672,  5675,  5678,  5681,  5688,  5693,  5701,  5722
** ... 67 like lines cut
*Elset, elset=__PickedSurf11_S3, internal, instance="Oval Bar-1"
     4,     5,     6,     8,    11,    17,    21,    26,    31,    32,    53,    55,    56,    57,    64,    68
    70,    81,    85,   335,   336,   337,   339,   342,   348,   352,   357,   362,   363,   384,   386,   387
   388,   395,   399,   401,   412,   416,   666,   667,   668,   670,   673,   679,   683,   688,   693,   694
   715,   717,   718,   719,   726,   730,   732,   743,   747,   997,   998,   999,  1001,  1004,  1010,  1014
  1019,  1024,  1025,  1046,  1048,  1049,  1050,  1057,  1061,  1063,  1074,  1078,  1328,  1329,  1330,  1332
  1335,  1341,  1345,  1350,  1355,  1356,  1377,  1379,  1380,  1381,  1388,  1392,  1394,  1405,  1409,  1659
  1660,  1661,  1663,  1666,  1672,  1676,  1681,  1686,  1687,  1708,  1710,  1711,  1712,  1719,  1723,  1725
  1736,  1740,  1990,  1991,  1992,  1994,  1997,  2003,  2007,  2012,  2017,  2018,  2039,  2041,  2042,  2043
  2050,  2054,  2056,  2067,  2071,  2321,  2322,  2323,  2325,  2328,  2334,  2338,  2343,  2348,  2349,  2370
  2372,  2373,  2374,  2381,  2385,  2387,  2398,  2402,  2652,  2653,  2654,  2656,  2659,  2665,  2669,  2674
  2679,  2680,  2701,  2703,  2704,  2705,  2712,  2716,  2718,  2729,  2733,  2983,  2984,  2985,  2987,  2990
  2996,  3000,  3005,  3010,  3011,  3032,  3034,  3035,  3036,  3043,  3047,  3049,  3060,  3064,  3314,  3315
  3316,  3318,  3321,  3327,  3331,  3336,  3341,  3342,  3363,  3365,  3366,  3367,  3374,  3378,  3380,  3391
  3395,  3645,  3646,  3647,  3649,  3652,  3658,  3662,  3667,  3672,  3673,  3694,  3696,  3697,  3698,  3705
  3709,  3711,  3722,  3726,  3976,  3977,  3978,  3980,  3983,  3989,  3993,  3998,  4003,  4004,  4025,  4027
  4028,  4029,  4036,  4040,  4042,  4053,  4057,  4307,  4308,  4309,  4311,  4314,  4320,  4324,  4329,  4334
  4335,  4356,  4358,  4359,  4360,  4367,  4371,  4373,  4384,  4388,  4638,  4639,  4640,  4642,  4645,  4651
  4655,  4660,  4665,  4666,  4687,  4689,  4690,  4691,  4698,  4702,  4704,  4715,  4719,  4969,  4970,  4971
  4973,  4976,  4982,  4986,  4991,  4996,  4997,  5018,  5020,  5021,  5022,  5029,  5033,  5035,  5046,  5050
  5300,  5301,  5302,  5304,  5307,  5313,  5317,  5322,  5327,  5328,  5349,  5351,  5352,  5353,  5360,  5364
** ... 72 like lines cut
*Elset, elset=__PickedSurf11_S5, internal, instance="Oval Bar-1"
     9,    10,    15,    20,    30,    62,    75,   340,   341,   346,   351,   361,   393,   406,   671,   672
   677,   682,   692,   724,   737,  1002,  1003,  1008,  1013,  1023,  1055,  1068,  1333,  1334,  1339,  1344
  1354,  1386,  1399,  1664,  1665,  1670,  1675,  1685,  1717,  1730,  1995,  1996,  2001,  2006,  2016,  2048
  2061,  2326,  2327,  2332,  2337,  2347,  2379,  2392,  2657,  2658,  2663,  2668,  2678,  2710,  2723,  2988
  2989,  2994,  2999,  3009,  3041,  3054,  3319,  3320,  3325,  3330,  3340,  3372,  3385,  3650,  3651,  3656
  3661,  3671,  3703,  3716,  3981,  3982,  3987,  3992,  4002,  4034,  4047,  4312,  4313,  4318,  4323,  4333
  4365,  4378,  4643,  4644,  4649,  4654,  4664,  4696,  4709,  4974,  4975,  4980,  4985,  4995,  5027,  5040
  5305,  5306,  5311,  5316,  5326,  5358,  5371,  5636,  5637,  5642,  5647,  5657,  5689,  5702,  5967,  5968
  5973,  5978,  5988,  6020,  6033,  6298,  6299,  6304,  6309,  6319,  6351,  6364,  6629,  6630,  6635,  6640
  6650,  6682,  6695,  6960,  6961,  6966,  6971,  6981,  7013,  7026,  7291,  7292,  7297,  7302,  7312,  7344
  7357,  7622,  7623,  7628,  7633,  7643,  7675,  7688,  7953,  7954,  7959,  7964,  7974,  8006,  8019,  8284
  8285,  8290,  8295,  8305,  8337,  8350,  8615,  8616,  8621,  8626,  8636,  8668,  8681,  8946,  8947,  8952
  8957,  8967,  8999,  9012,  9277,  9278,  9283,  9288,  9298,  9330,  9343,  9608,  9609,  9614,  9619,  9629
  9661,  9674,  9939,  9940,  9945,  9950,  9960,  9992, 10005, 10270, 10271, 10276, 10281, 10291, 10323, 10336
 10601, 10602, 10607, 10612, 10622, 10654, 10667, 10932, 10933, 10938, 10943, 10953, 10985, 10998, 11263, 11264
 11269, 11274, 11284, 11316, 11329, 11594, 11595, 11600, 11605, 11615, 11647, 11660, 11925, 11926, 11931, 11936
 11946, 11978, 11991, 12256, 12257, 12262, 12267, 12277, 12309, 12322, 12587, 12588, 12593, 12598, 12608, 12640
 12653, 12918, 12919, 12924, 12929, 12939, 12971, 12984, 13249, 13250, 13255, 13260, 13270, 13302, 13315, 13580
 13581, 13586, 13591, 13601, 13633, 13646, 13911, 13912, 13917, 13922, 13932, 13964, 13977, 14242, 14243, 14248
 14253, 14263, 14295, 14308, 14573, 14574, 14579, 14584, 14594, 14626, 14639, 14904, 14905, 14910, 14915, 14925
** ... 14 like lines cut
*Surface, type=ELEMENT, name=_PickedSurf11, internal
__PickedSurf11_S4, S4
__PickedSurf11_S6, S6
__PickedSurf11_S3, S3
__PickedSurf11_S5, S5
*Elset, elset=__PickedSurf14_SPOS, internal, instance="Left Grip-1", generate
    1,  1260,     1
*Surface, type=ELEMENT, name=_PickedSurf14, internal
__PickedSurf14_SPOS, SPOS
*Elset, elset=__PickedSurf16_SPOS, internal, instance="Right Grip-1", generate
    1,  1260,     1
*Surface, type=ELEMENT, name=_PickedSurf16, internal
__PickedSurf16_SPOS, SPOS
** Constraint: Constraint-1
*Tie, name=Constraint-1, adjust=yes
_PickedSurf9, _PickedSurf8
** Constraint: Constraint-2
*Tie, name=Constraint-2, adjust=yes
_PickedSurf11, _PickedSurf10
** Constraint: Constraint-3
*Coupling, constraint name=Constraint-3, ref node=_PickedSet15, surface=_PickedSurf14
*Kinematic
** Constraint: Constraint-4
*Coupling, constraint name=Constraint-4, ref node=_PickedSet17, surface=_PickedSurf16
*Kinematic
** Constraint: Constraint-5
*Rigid Body, ref node=_PickedSet18, elset=_PickedSet19
** Constraint: Constraint-6
*Rigid Body, ref node=_PickedSet20, elset=_PickedSet21
*End Assembly
** 
** MATERIALS
** 
*Material, name="ASTM 36A"
*Elastic
 2.1e+11, 0.3
** ----------------------------------------------------------------
** 
** STEP: Step-1
** 
*Step, name=Step-1, nlgeom=NO
*Static
1., 1., 1e-05, 1.
** 
** BOUNDARY CONDITIONS
** 
** Name: BC-1 Type: Displacement/Rotation
*Boundary
_PickedSet22, 1, 1
_PickedSet22, 2, 2
_PickedSet22, 3, 3
_PickedSet22, 4, 4
_PickedSet22, 5, 5
** Name: BC-2 Type: Displacement/Rotation
*Boundary
_PickedSet23, 6, 6, 10.
** Name: BC-3 Type: Displacement/Rotation
*Boundary
_PickedSet24, 6, 6, -10.
** 
** OUTPUT REQUESTS
** 
*Restart, write, frequency=0
** 
** FIELD OUTPUT: F-Output-1
** 
*Output, field, variable=PRESELECT
** 
** HISTORY OUTPUT: H-Output-1
** 
*Output, history, variable=PRESELECT
*End Step
