*Heading
** Job name: Job-1 Model name: Model-1
** Generated by: Abaqus/CAE 2023
*Preprint, echo=NO, model=NO, history=NO, contact=NO
**
** PARTS
**
*Part, name="Circle Bar"
*Node
      1,   4.83780718,  -1.26317894,           0.
      2,   4.65634632,   1.82165849,           0.
      3,   3.32181931,   3.73704648,           0.
      4,   1.26317894,   4.83780718,           0.
      5,  -1.82165849,   4.65634632,           0.
      6,  -3.73704648,   3.32181931,           0.
      7,  -4.83780718,   1.26317894,           0.
      8,  -4.65634632,  -1.82165849,           0.
      9,  -3.32181931,  -3.73704648,           0.
     10,  -1.26317894,  -4.83780718,           0.
     11,   1.82165849,  -4.65634632,           0.
     12,   3.73704648,  -3.32181931,           0.
     13,    4.2106843,   -2.6963191,           0.
     14,   4.58064127,  -2.00442696,           0.
     15,   4.97585058, -0.490827292,           0.
     16,   4.99137163,  0.293610096,           0.
     17,   4.88398886,   1.07081783,           0.
     18,   4.31404877,   2.52764392,           0.
     19,   3.86552501,    3.1713903,           0.
     20,    2.6963191,    4.2106843,           0.
** ... 25452 like lines cut
*Element, type=C3D8R
    1,   271,   239,   238,   270,    72,    40,    39,    71
    2,   268,   236,   235,   267,    69,    37,    36,    68
    3,   241,   208,   232,   265,    42,     9,    33,    66
    4,   212,   246,   247,   213,    13,    47,    48,    14
    5,   261,   228,   206,   242,    62,    29,     7,    43
    6,   258,   225,   224,   257,    59,    26,    25,    58
    7,   243,   204,   223,   256,    44,     5,    24,    57
    8,   288,   369,   325,   264,    89,   170,   126,    65
    9,   374,   275,   375,   281,   175,    76,   176,    82
   10,   250,   216,   215,   249,    51,    17,    16,    50
   11,   211,   240,   246,   212,    12,    41,    47,    13
   12,   309,   299,   280,   297,   110,   100,    81,    98
   13,   200,   292,   248,   214,     1,    93,    49,    15
   14,   245,   250,   275,   366,    46,    51,    76,   167
   15,   245,   201,   216,   250,    46,     2,    17,    51
   16,   310,   378,   373,   283,   111,   179,   174,    84
   17,   244,   202,   218,   251,    45,     3,    19,    52
   18,   370,   260,   259,   320,   171,    61,    60,   121
   19,   202,   244,   252,   219,     3,    45,    53,    20
   20,   219,   252,   253,   220,    20,    53,    54,    21
** ... 22586 like lines cut
*Nset, nset=_PickedSet2, internal, generate
     1,  25472,      1
*Elset, elset=_PickedSet2, internal, generate
     1,  22606,      1
** Section: Section-1
*Solid Section, elset=_PickedSet2, material="ASTM A36"
,
*End Part
**  
*Part, name="Left Grip"
*Node
      1,   3.48145008,  -3.58880281,          10.
      2,   2.87717509,  -4.08923769,          10.
      3,    2.2020545,  -4.48898172,          10.
      4,   1.47271228,  -4.77819204,          10.
      5,  0.707106769,  -4.94974756,          10.
      6, -0.0759099722,   -4.9994235,          10.
      7, -0.857057571,  -4.92599773,          10.
      8,  -1.61710155,  -4.73127699,          10.
      9,  -2.33732724,  -4.42005682,          10.
     10,          -3.,          -4.,          10.
     11,  -3.58880281,  -3.48145008,          10.
     12,  -4.08923769,  -2.87717509,          10.
     13,  -4.48898172,   -2.2020545,          10.
     14,  -4.77819204,  -1.47271228,          10.
     15,  -4.94974756, -0.707106769,          10.
     16,   -4.9994235, 0.0759099722,          10.
     17,  -4.92599773,  0.857057571,          10.
     18,  -4.73127699,   1.61710155,          10.
     19,  -4.42005682,   2.33732724,          10.
     20,          -4.,           3.,          10.
** ... 540 like lines cut
*Element, type=S4R
  1,  40,   1,  41,  80
  2,   1,   2,  42,  41
  3,   2,   3,  43,  42
  4,   3,   4,  44,  43
  5,   4,   5,  45,  44
  6,   5,   6,  46,  45
  7,   6,   7,  47,  46
  8,   7,   8,  48,  47
  9,   8,   9,  49,  48
 10,   9,  10,  50,  49
 11,  10,  11,  51,  50
 12,  11,  12,  52,  51
 13,  12,  13,  53,  52
 14,  13,  14,  54,  53
 15,  14,  15,  55,  54
 16,  15,  16,  56,  55
 17,  16,  17,  57,  56
 18,  17,  18,  58,  57
 19,  18,  19,  59,  58
 20,  19,  20,  60,  59
** ... 500 like lines cut
*Nset, nset=_PickedSet3, internal, generate
   1,  560,    1
*Elset, elset=_PickedSet3, internal, generate
   1,  520,    1
** Section: Section-2
*Shell Section, elset=_PickedSet3, material="ASTM A36"
1., 5
*End Part
**  
*Part, name="Right Grip"
*Node
      1,   3.41796255,  -3.64931941,          10.
      2,   2.80500245,  -4.13907719,          10.
      3,   2.12297392,  -4.52691746,          10.
      4,   1.38867056,  -4.80328989,          10.
      5,  0.620173693,  -4.96138954,          10.
      6, -0.163593993,  -4.99732304,          10.
      7, -0.943333447,  -4.91020584,          10.
      8,  -1.69984484,  -4.70218325,          10.
      9,  -2.41450047,  -4.37837744,          10.
     10,   -3.0697031,  -3.94676113,          10.
     11,  -3.64931941,  -3.41796255,          10.
     12,  -4.13907719,  -2.80500245,          10.
     13,  -4.52691746,  -2.12297392,          10.
     14,  -4.80328989,  -1.38867056,          10.
     15,  -4.96138954, -0.620173693,          10.
     16,  -4.99732304,  0.163593993,          10.
     17,  -4.91020584,  0.943333447,          10.
     18,  -4.70218325,   1.69984484,          10.
     19,  -4.37837744,   2.41450047,          10.
     20,  -3.94676113,    3.0697031,          10.
** ... 540 like lines cut
*Element, type=S4R
  1,  40,   1,  41,  80
  2,   1,   2,  42,  41
  3,   2,   3,  43,  42
  4,   3,   4,  44,  43
  5,   4,   5,  45,  44
  6,   5,   6,  46,  45
  7,   6,   7,  47,  46
  8,   7,   8,  48,  47
  9,   8,   9,  49,  48
 10,   9,  10,  50,  49
 11,  10,  11,  51,  50
 12,  11,  12,  52,  51
 13,  12,  13,  53,  52
 14,  13,  14,  54,  53
 15,  14,  15,  55,  54
 16,  15,  16,  56,  55
 17,  16,  17,  57,  56
 18,  17,  18,  58,  57
 19,  18,  19,  59,  58
 20,  19,  20,  60,  59
** ... 500 like lines cut
*Nset, nset=_PickedSet3, internal, generate
   1,  560,    1
*Elset, elset=_PickedSet3, internal, generate
   1,  520,    1
** Section: Section-2
*Shell Section, elset=_PickedSet3, material="ASTM A36"
1., 5
*End Part
**  
**
** ASSEMBLY
**
*Assembly, name=Assembly
**  
*Instance, name="Circle Bar-1", part="Circle Bar"
*End Instance
**  
*Instance, name="Left Grip-1", part="Left Grip"
*End Instance
**  
*Instance, name="Right Grip-1", part="Right Grip"
          0.,           0.,          90.
*End Instance
**  
*Node
      1,           0.,           0.,           0.
*Node
      2,           0.,           0.,         100.
*Nset, nset=_PickedSet31, internal
 1,
*Nset, nset=_PickedSet32, internal
 2,
*Nset, nset=_PickedSet33, internal
 1, 2
*Nset, nset=_PickedSet34, internal
 1,
*Nset, nset=_PickedSet35, internal, instance="Left Grip-1", generate
   1,  560,    1
*Elset, elset=_PickedSet35, internal, instance="Left Grip-1", generate
   1,  520,    1
*Nset, nset=_PickedSet36, internal
 2,
*Nset, nset=_PickedSet37, internal, instance="Right Grip-1", generate
   1,  560,    1
*Elset, elset=_PickedSet37, internal, instance="Right Grip-1", generate
   1,  520,    1
*Nset, nset=_PickedSet39, internal
 1,
*Nset, nset=_PickedSet41, internal
 2,
*Elset, elset=__PickedSurf38_SPOS, internal, instance="Left Grip-1", generate
   1,  520,    1
*Surface, type=ELEMENT, name=_PickedSurf38, internal
__PickedSurf38_SPOS, SPOS
*Elset, elset=__PickedSurf40_SPOS, internal, instance="Right Grip-1", generate
   1,  520,    1
*Surface, type=ELEMENT, name=_PickedSurf40, internal
__PickedSurf40_SPOS, SPOS
*Elset, elset=__PickedSurf42_S4, internal, instance="Circle Bar-1"
     1,     2,     3,     5,     6,     7,    10,    15,    17,    25,    26,    31,    32,    33,    35,    36
    37,    38,    39,    41,    63,   167,   179,   180,   181,   183,   184,   185,   188,   193,   195,   203
   204,   209,   210,   211,   213,   214,   215,   216,   217,   219,   241,   345,   357,   358,   359,   361
   362,   363,   366,   371,   373,   381,   382,   387,   388,   389,   391,   392,   393,   394,   395,   397
   419,   523,   535,   536,   537,   539,   540,   541,   544,   549,   551,   559,   560,   565,   566,   567
   569,   570,   571,   572,   573,   575,   597,   701,   713,   714,   715,   717,   718,   719,   722,   727
   729,   737,   738,   743,   744,   745,   747,   748,   749,   750,   751,   753,   775,   879,   891,   892
   893,   895,   896,   897,   900,   905,   907,   915,   916,   921,   922,   923,   925,   926,   927,   928
   929,   931,   953,  1057,  1069,  1070,  1071,  1073,  1074,  1075,  1078,  1083,  1085,  1093,  1094,  1099
  1100,  1101,  1103,  1104,  1105,  1106,  1107,  1109,  1131,  1235,  1247,  1248,  1249,  1251,  1252,  1253
  1256,  1261,  1263,  1271,  1272,  1277,  1278,  1279,  1281,  1282,  1283,  1284,  1285,  1287,  1309,  1413
  1425,  1426,  1427,  1429,  1430,  1431,  1434,  1439,  1441,  1449,  1450,  1455,  1456,  1457,  1459,  1460
  1461,  1462,  1463,  1465,  1487,  1591,  1603,  1604,  1605,  1607,  1608,  1609,  1612,  1617,  1619,  1627
  1628,  1633,  1634,  1635,  1637,  1638,  1639,  1640,  1641,  1643,  1665,  1769,  1781,  1782,  1783,  1785
  1786,  1787,  1790,  1795,  1797,  1805,  1806,  1811,  1812,  1813,  1815,  1816,  1817,  1818,  1819,  1821
  1843,  1947,  1959,  1960,  1961,  1963,  1964,  1965,  1968,  1973,  1975,  1983,  1984,  1989,  1990,  1991
  1993,  1994,  1995,  1996,  1997,  1999,  2021,  2125,  2137,  2138,  2139,  2141,  2142,  2143,  2146,  2151
  2153,  2161,  2162,  2167,  2168,  2169,  2171,  2172,  2173,  2174,  2175,  2177,  2199,  2303,  2315,  2316
  2317,  2319,  2320,  2321,  2324,  2329,  2331,  2339,  2340,  2345,  2346,  2347,  2349,  2350,  2351,  2352
  2353,  2355,  2377,  2481,  2493,  2494,  2495,  2497,  2498,  2499,  2502,  2507,  2509,  2517,  2518,  2523
** ... 155 like lines cut
*Elset, elset=__PickedSurf42_S6, internal, instance="Circle Bar-1"
     4,    11,    13,    19,    20,    21,    23,    28,    29,    30,    34,    40,    43,    47,    55,    60
    66,   182,   189,   191,   197,   198,   199,   201,   206,   207,   208,   212,   218,   221,   225,   233
   238,   244,   360,   367,   369,   375,   376,   377,   379,   384,   385,   386,   390,   396,   399,   403
   411,   416,   422,   538,   545,   547,   553,   554,   555,   557,   562,   563,   564,   568,   574,   577
   581,   589,   594,   600,   716,   723,   725,   731,   732,   733,   735,   740,   741,   742,   746,   752
   755,   759,   767,   772,   778,   894,   901,   903,   909,   910,   911,   913,   918,   919,   920,   924
   930,   933,   937,   945,   950,   956,  1072,  1079,  1081,  1087,  1088,  1089,  1091,  1096,  1097,  1098
  1102,  1108,  1111,  1115,  1123,  1128,  1134,  1250,  1257,  1259,  1265,  1266,  1267,  1269,  1274,  1275
  1276,  1280,  1286,  1289,  1293,  1301,  1306,  1312,  1428,  1435,  1437,  1443,  1444,  1445,  1447,  1452
  1453,  1454,  1458,  1464,  1467,  1471,  1479,  1484,  1490,  1606,  1613,  1615,  1621,  1622,  1623,  1625
  1630,  1631,  1632,  1636,  1642,  1645,  1649,  1657,  1662,  1668,  1784,  1791,  1793,  1799,  1800,  1801
  1803,  1808,  1809,  1810,  1814,  1820,  1823,  1827,  1835,  1840,  1846,  1962,  1969,  1971,  1977,  1978
  1979,  1981,  1986,  1987,  1988,  1992,  1998,  2001,  2005,  2013,  2018,  2024,  2140,  2147,  2149,  2155
  2156,  2157,  2159,  2164,  2165,  2166,  2170,  2176,  2179,  2183,  2191,  2196,  2202,  2318,  2325,  2327
  2333,  2334,  2335,  2337,  2342,  2343,  2344,  2348,  2354,  2357,  2361,  2369,  2374,  2380,  2496,  2503
  2505,  2511,  2512,  2513,  2515,  2520,  2521,  2522,  2526,  2532,  2535,  2539,  2547,  2552,  2558,  2674
  2681,  2683,  2689,  2690,  2691,  2693,  2698,  2699,  2700,  2704,  2710,  2713,  2717,  2725,  2730,  2736
  2852,  2859,  2861,  2867,  2868,  2869,  2871,  2876,  2877,  2878,  2882,  2888,  2891,  2895,  2903,  2908
  2914,  3030,  3037,  3039,  3045,  3046,  3047,  3049,  3054,  3055,  3056,  3060,  3066,  3069,  3073,  3081
  3086,  3092,  3208,  3215,  3217,  3223,  3224,  3225,  3227,  3232,  3233,  3234,  3238,  3244,  3247,  3251
** ... 115 like lines cut
*Elset, elset=__PickedSurf42_S5, internal, instance="Circle Bar-1", generate
    42,  22470,    178
*Surface, type=ELEMENT, name=_PickedSurf42, internal
__PickedSurf42_S4, S4
__PickedSurf42_S6, S6
__PickedSurf42_S5, S5
*Elset, elset=__PickedSurf43_SNEG, internal, instance="Left Grip-1", generate
   1,  520,    1
*Surface, type=ELEMENT, name=_PickedSurf43, internal
__PickedSurf43_SNEG, SNEG
*Elset, elset=__PickedSurf44_SNEG, internal, instance="Right Grip-1", generate
   1,  520,    1
*Surface, type=ELEMENT, name=_PickedSurf44, internal
__PickedSurf44_SNEG, SNEG
*Elset, elset=__PickedSurf45_S4, internal, instance="Circle Bar-1"
     1,     2,     3,     5,     6,     7,    10,    15,    17,    25,    26,    31,    32,    33,    35,    36
    37,    38,    39,    41,    63,   167,   179,   180,   181,   183,   184,   185,   188,   193,   195,   203
   204,   209,   210,   211,   213,   214,   215,   216,   217,   219,   241,   345,   357,   358,   359,   361
   362,   363,   366,   371,   373,   381,   382,   387,   388,   389,   391,   392,   393,   394,   395,   397
   419,   523,   535,   536,   537,   539,   540,   541,   544,   549,   551,   559,   560,   565,   566,   567
   569,   570,   571,   572,   573,   575,   597,   701,   713,   714,   715,   717,   718,   719,   722,   727
   729,   737,   738,   743,   744,   745,   747,   748,   749,   750,   751,   753,   775,   879,   891,   892
   893,   895,   896,   897,   900,   905,   907,   915,   916,   921,   922,   923,   925,   926,   927,   928
   929,   931,   953,  1057,  1069,  1070,  1071,  1073,  1074,  1075,  1078,  1083,  1085,  1093,  1094,  1099
  1100,  1101,  1103,  1104,  1105,  1106,  1107,  1109,  1131,  1235,  1247,  1248,  1249,  1251,  1252,  1253
  1256,  1261,  1263,  1271,  1272,  1277,  1278,  1279,  1281,  1282,  1283,  1284,  1285,  1287,  1309,  1413
  1425,  1426,  1427,  1429,  1430,  1431,  1434,  1439,  1441,  1449,  1450,  1455,  1456,  1457,  1459,  1460
  1461,  1462,  1463,  1465,  1487,  1591,  1603,  1604,  1605,  1607,  1608,  1609,  1612,  1617,  1619,  1627
  1628,  1633,  1634,  1635,  1637,  1638,  1639,  1640,  1641,  1643,  1665,  1769,  1781,  1782,  1783,  1785
  1786,  1787,  1790,  1795,  1797,  1805,  1806,  1811,  1812,  1813,  1815,  1816,  1817,  1818,  1819,  1821
  1843,  1947,  1959,  1960,  1961,  1963,  1964,  1965,  1968,  1973,  1975,  1983,  1984,  1989,  1990,  1991
  1993,  1994,  1995,  1996,  1997,  1999,  2021,  2125,  2137,  2138,  2139,  2141,  2142,  2143,  2146,  2151
  2153,  2161,  2162,  2167,  2168,  2169,  2171,  2172,  2173,  2174,  2175,  2177,  2199,  2303,  2315,  2316
  2317,  2319,  2320,  2321,  2324,  2329,  2331,  2339,  2340,  2345,  2346,  2347,  2349,  2350,  2351,  2352
  2353,  2355,  2377,  2481,  2493,  2494,  2495,  2497,  2498,  2499,  2502,  2507,  2509,  2517,  2518,  2523
** ... 155 like lines cut
*Elset, elset=__PickedSurf45_S6, internal, instance="Circle Bar-1"
     4,    11,    13,    19,    20,    21,    23,    28,    29,    30,    34,    40,    43,    47,    55,    60
    66,   182,   189,   191,   197,   198,   199,   201,   206,   207,   208,   212,   218,   221,   225,   233
   238,   244,   360,   367,   369,   375,   376,   377,   379,   384,   385,   386,   390,   396,   399,   403
   411,   416,   422,   538,   545,   547,   553,   554,   555,   557,   562,   563,   564,   568,   574,   577
   581,   589,   594,   600,   716,   723,   725,   731,   732,   733,   735,   740,   741,   742,   746,   752
   755,   759,   767,   772,   778,   894,   901,   903,   909,   910,   911,   913,   918,   919,   920,   924
   930,   933,   937,   945,   950,   956,  1072,  1079,  1081,  1087,  1088,  1089,  1091,  1096,  1097,  1098
  1102,  1108,  1111,  1115,  1123,  1128,  1134,  1250,  1257,  1259,  1265,  1266,  1267,  1269,  1274,  1275
  1276,  1280,  1286,  1289,  1293,  1301,  1306,  1312,  1428,  1435,  1437,  1443,  1444,  1445,  1447,  1452
  1453,  1454,  1458,  1464,  1467,  1471,  1479,  1484,  1490,  1606,  1613,  1615,  1621,  1622,  1623,  1625
  1630,  1631,  1632,  1636,  1642,  1645,  1649,  1657,  1662,  1668,  1784,  1791,  1793,  1799,  1800,  1801
  1803,  1808,  1809,  1810,  1814,  1820,  1823,  1827,  1835,  1840,  1846,  1962,  1969,  1971,  1977,  1978
  1979,  1981,  1986,  1987,  1988,  1992,  1998,  2001,  2005,  2013,  2018,  2024,  2140,  2147,  2149,  2155
  2156,  2157,  2159,  2164,  2165,  2166,  2170,  2176,  2179,  2183,  2191,  2196,  2202,  2318,  2325,  2327
  2333,  2334,  2335,  2337,  2342,  2343,  2344,  2348,  2354,  2357,  2361,  2369,  2374,  2380,  2496,  2503
  2505,  2511,  2512,  2513,  2515,  2520,  2521,  2522,  2526,  2532,  2535,  2539,  2547,  2552,  2558,  2674
  2681,  2683,  2689,  2690,  2691,  2693,  2698,  2699,  2700,  2704,  2710,  2713,  2717,  2725,  2730,  2736
  2852,  2859,  2861,  2867,  2868,  2869,  2871,  2876,  2877,  2878,  2882,  2888,  2891,  2895,  2903,  2908
  2914,  3030,  3037,  3039,  3045,  3046,  3047,  3049,  3054,  3055,  3056,  3060,  3066,  3069,  3073,  3081
  3086,  3092,  3208,  3215,  3217,  3223,  3224,  3225,  3227,  3232,  3233,  3234,  3238,  3244,  3247,  3251
** ... 115 like lines cut
*Elset, elset=__PickedSurf45_S5, internal, instance="Circle Bar-1", generate
    42,  22470,    178
*Surface, type=ELEMENT, name=_PickedSurf45, internal
__PickedSurf45_S4, S4
__PickedSurf45_S6, S6
__PickedSurf45_S5, S5
** Constraint: Constraint-1
*Rigid Body, ref node=_PickedSet34, elset=_PickedSet35
** Constraint: Constraint-2
*Rigid Body, ref node=_PickedSet36, elset=_PickedSet37
** Constraint: Constraint-3
*Coupling, constraint name=Constraint-3, ref node=_PickedSet39, surface=_PickedSurf38
*Kinematic
** Constraint: Constraint-4
*Coupling, constraint name=Constraint-4, ref node=_PickedSet41, surface=_PickedSurf40
*Kinematic
** Constraint: Constraint-5
*Tie, name=Constraint-5, adjust=yes
_PickedSurf43, _PickedSurf42
** Constraint: Constraint-6
*Tie, name=Constraint-6, adjust=yes
_PickedSurf45, _PickedSurf44
*End Assembly
** 
** MATERIALS
** 
*Material, name="ASTM A36"
*Elastic
 2.1e+11, 0.3
** ----------------------------------------------------------------
** 
** STEP: Step-1
** 
*Step, name=Step-1, nlgeom=NO
*Static
1., 1., 1e-05, 1.
** 
** BOUNDARY CONDITIONS
** 
** Name: BC-1 Type: Displacement/Rotation
*Boundary
_PickedSet31, 6, 6, 10.
** Name: BC-2 Type: Displacement/Rotation
*Boundary
_PickedSet32, 6, 6, -10.
** Name: BC-3 Type: Displacement/Rotation
*Boundary
_PickedSet33, 1, 1
_PickedSet33, 2, 2
_PickedSet33, 3, 3
_PickedSet33, 4, 4
_PickedSet33, 5, 5
** 
** OUTPUT REQUESTS
** 
*Restart, write, frequency=0
** 
** FIELD OUTPUT: F-Output-1
** 
*Output, field, variable=PRESELECT
** 
** HISTORY OUTPUT: H-Output-1
** 
*Output, history, variable=PRESELECT
*End Step
